# ----- Rotor performance tables for the OpenFAST_4.2MW wind turbine ----- 																			
# ------------ Written on Nov-27-23 using the ROSCO toolbox ------------																			
																			
# Pitch angle vector - x axis (matrix columns) (deg)																
-3	-1.329	0.092	1.76315	3.434	5.1055	6.7765	8.4475	10.1185	11.79	13.46	15.13	16.805	18.475	20.145	21.815	23.485	25.16	26.83	28.5
# TSR vector - y axis (matrix rows) (-)																			
2.5	3.263	4.0265	4.7895	5.5525	6.316	7.079	7.842	8.6055	9.3685	10.1315	10.8945	11.658	12.421	13.184	13.9475	14.71	15.475	16.235	17
# Wind speed vector - z axis (m/s)																			
10.6315																			
																			
# Power coefficient																			
																			
0.046031	0.054904	0.0588565	0.066843	0.0704285	0.0801715	0.0852235	0.089087	0.0917165	0.0937085	0.0946035	0.095503	0.094272	0.0909295	0.0877575	0.081221	0.0734015	0.067354	0.0569315	0.0449485
0.074124	0.085657	0.091211	0.101085	0.1062415	0.116164	0.121223	0.124669	0.1275095	0.1278675	0.1249315	0.121598	0.113972	0.104517	0.0968285	0.082806	0.06619		0.0523195	0.032828	0.01266
0.107825	0.1220835	0.1298775	0.141466	0.1488685	0.157756	0.162146	0.1636065	0.162998	0.1563755	0.1472035	0.1400805	0.1247865	0.1051005	0.0878845	0.0632055	0.0369545	0.015919	-0.0114995	-0.0387395
0.1466695	0.163477	0.1741505	0.1871355	0.196718	0.202027	0.202503	0.1966475	0.1922425	0.180839	0.1631115	0.1451675	0.1171165	0.0862595	0.0605865	0.02629		-0.0092185	-0.037246	-0.0726665	-0.1072975
0.1892725	0.208309	0.2220845	0.2344295	0.2458175	0.2430095	0.2369895	0.2281525	0.2191015	0.1935195	0.161347	0.1334125	0.09476		0.053276	0.0187645	-0.0257445	-0.07043	-0.106034	-0.1496805	-0.191708
0.2329475	0.2529775	0.2683365	0.2801585	0.2915		0.280761	0.2740795	0.2537985	0.2293085	0.1905545	0.147438	0.1106685	0.060206	0.0071685	-0.036477	-0.091628	-0.146242	-0.1899235	-0.2418425	-0.293166
0.2729235	0.292344	0.31169		0.323143	0.3357805	0.3229955	0.299822	0.2627255	0.228122	0.1787665	0.1237825	0.077133	0.0143395	-0.0511835	-0.104568	-0.1710595	-0.2366375	-0.2884885	-0.351089	-0.4145285
0.3050895	0.3278295	0.3540385	0.366534	0.384262	0.3494825	0.311198	0.262605	0.2192155	0.158624	0.0915395	0.0336765	-0.042724	-0.1212835	-0.185435	-0.264346	-0.342285	-0.40369	-0.4801975	-0.5585975
0.331163	0.36475		0.396342	0.4145705	0.4138145	0.3636035	0.314979	0.256664	0.2041975	0.13115		0.0501805	-0.0195565	-0.1104475	-0.203128	-0.27919	-0.3723005	-0.464282	-0.5381005	-0.63152	-0.7270755
0.357131	0.4018615	0.442557	0.441508	0.4316525	0.3708755	0.313353	0.245057	0.1832595	0.096409	0.0002425	-0.0823435	-0.1888955	-0.297346	-0.124755	-0.495927	-0.605312	-0.6933895	-0.807582	-0.920865
0.3846585	0.4399115	0.462196	0.4554775	0.4418215	0.373089	0.3075695	0.2286375	0.1564015	0.054455	-0.058418	-0.154658	-0.2785515	-0.404317	-0.508992	-0.6371995	-0.7665015	-0.8723555	-1.009693	-1.141004
0.407456	0.446168	0.465972	0.4604805	0.4470615	0.371757	0.297934	0.207404	0.1237475	0.005263	-0.1257085	-0.2369605	-0.379993	-0.5249065	-0.647329	-0.7974415	-0.9501195	-1.0768625	-1.2391435	-1.3886625
0.4036735	0.438681	0.4573585	0.458249	0.448014	0.367036	0.2844855	0.1814025	0.085323	-0.0515545	-0.2018025	-0.329778	-0.4935835	-0.660275	-0.803042	-0.978221	-1.157924	-1.308708	-1.496999	-1.66549
0.389143	0.422703	0.443908	0.450112	0.445212	0.359033	0.2673585	0.150696	0.040665	-0.115739	-0.2872485	-0.433453	-0.6203655	-0.811175	-0.9780985	-1.180572	-1.392111	-1.56906	-1.7844645	-1.9735255
0.365674	0.403344	0.427931	0.437751	0.438551	0.3479365	0.24666		0.1149275	-0.009917	-0.187862	-0.382154	-0.5485325	-0.7606495	-0.9794385	-1.1731595	-1.4064375	-1.654236	-1.85915	-2.1028565	-2.315127
0.3374525	0.38109		0.4095045	0.422943	0.4282805	0.333839	0.2220625	0.07398		-0.066957	-0.26801	-0.4873735	-0.6758255	-0.915651	-1.1664795	-1.3892555	-1.657395	-1.945685	-2.1802245	-2.4536965	-2.692803
0.305169	0.355908	0.388736	0.4063855	0.415062	0.3163975	0.193478	0.0278365	-0.1305155	-0.3565325	-0.6029345	-0.815534	-1.0861785	-1.373506	-1.627274	-1.935093	-2.2677825	-2.5335695	-2.8387455	-3.1090665
0.268923	0.3277685	0.365924	0.3880715	0.399097	0.295524	0.1609685	-0.02372	-0.2008425	-0.4537225	-0.7299405	-0.968705	-1.273137	-1.6015145	-1.88842	-2.2410025	-2.6218455	-2.9205145	-3.259941	-3.5663485
0.229296	0.29691		0.341066	0.367613	0.3807075	0.271282	0.124325	-0.080802	-0.278435	-0.5604585	-0.8684315	-1.13597	-1.4776315	-1.851316	-2.174009	-2.576464	-3.009208	-3.3424545	-3.719301	-4.0669905
0.189119	0.263382	0.3137705	0.3449285	0.360296	0.2435135	0.083452	-0.143948	-0.3631225	-0.6766785	-1.01922	-1.3177905	-1.7007925	-2.123606	-2.4854625	-2.942774	-3.431212	-3.800848	-4.2188775	-4.613259

																			
#  Thrust coefficient																		
																			
0.158194	0.158344	0.1577255	0.1568435	0.1558945	0.1528825	0.149962	0.146535	0.144004	0.139919	0.135351	0.132202	0.126113	0.11846		0.112237	0.1023255	0.0915115	0.0833035	0.0706025	0.0567575
0.201237	0.199856	0.1987805	0.196381	0.1953795	0.1897495	0.185626	0.1808815	0.177762	0.1708895	0.161616	0.15391		0.141516	0.127814	0.117054	0.0998325	0.0806295	0.065048	0.044027	0.022816
0.249453	0.2466175	0.245693	0.242305	0.242042	0.2334405	0.227314	0.218608	0.210744	0.196753	0.1811805	0.1692795	0.148939	0.1250715	0.1050665	0.0777825	0.0498115	0.0278385	-0.0001585	-0.027334
0.3037815	0.299938	0.2998065	0.2953205	0.2956615	0.2806795	0.267734	0.2512545	0.2393945	0.2196495	0.1947695	0.1719125	0.1388705	0.104237	0.076351	0.040558	0.0043565	-0.0237035	-0.057899	-0.088863
0.3649525	0.3598145	0.3602775	0.3526835	0.3512985	0.3243655	0.304638	0.2838485	0.2659665	0.2312505	0.1915205	0.158576	0.115274	0.070894	0.034946	-0.0097755	-0.053536	-0.086777	-0.1244985	-0.1567885
0.4317035	0.4232955	0.4230795	0.4090895	0.404404	0.367811	0.3451495	0.3109725	0.2767275	0.2279415	0.1768865	0.135127	0.080604	0.026064	-0.017764	-0.0710235	-0.1212575	-0.1575345	-0.196617	-0.2279325
0.500047	0.48631		0.4844855	0.463413	0.460054	0.41712		0.3753365	0.3223035	0.2767615	0.216331	0.1528455	0.101477	0.0362465	-0.02872	-0.08019	-0.1410135	-0.1958445	-0.2335265	-0.2722455	-0.30174
0.566683	0.548179	0.544939	0.522634	0.5230335	0.4522965	0.3921905	0.324963	0.268837	0.1960975	0.1210145	0.059357	-0.0170485	-0.092007	-0.1508465	-0.2177835	-0.2759945	-0.313514	-0.351317	-0.379064
0.632319	0.610655	0.6108935	0.5919975	0.5695795	0.476307	0.401589	0.3216735	0.254554	0.168944	0.081374	0.0096265	-0.0779135	-0.16273	-0.228215	-0.300275	-0.3604095	-0.3974565	-0.434269	-0.4596485
0.6995305	0.678341	0.690956	0.6436605	0.6063055	0.4935985	0.4051225	0.312182	0.2344525	0.1355905	0.0352445	-0.0468565	-0.1455815	-0.240346	-0.311667	-0.387739	-0.449123	-0.485494	-0.5214495	-0.542869
0.772804	0.764833	0.7501475	0.6844215	0.635292	0.5054315	0.404194	0.2980375	0.209071	0.0966595	-0.017017	-0.1094595	-0.21965	-0.3240615	-0.4004295	-0.480021	-0.54193	-0.578234	-0.6124775	-0.6284035
0.8671695	0.8268125	0.797178	0.7173495	0.6599205	0.513779	0.399465	0.2796495	0.1790135	0.052568	-0.074819	-0.177941	-0.299818	-0.413479	-0.494423	-0.576637	-0.639506	-0.67558	-0.7072205	-0.716011
0.9384505	0.8797075	0.834486	0.7446165	0.6808815	0.5189315	0.391299	0.2573845	0.1446735	0.0034055	-0.1378535	-0.252105	-0.3855945	-0.5084555	-0.5931255	-0.678163	-0.7418245	-0.7776595	-0.8054315	-0.805704
1.0047495	0.923554	0.8671395	0.7675825	0.699035	0.52125		0.380065	0.231596	0.1059925	-0.0501785	-0.2061025	-0.3316015	-0.477097	-0.6083835	-0.696957	-0.784524	-0.849206	-0.884307	-0.9068975	-0.8976885
1.06243		0.964092	0.8978585	0.78754		0.714405	0.5210995	0.366079	0.2022695	0.0636185	-0.1083475	-0.2791045	-0.416274	-0.5737685	-0.7135505	-0.8056635	-0.896103	-0.9616345	-0.995368	-1.011457	-0.992331
1.1170815	1.00328		0.9274125	0.80581		0.7273155	0.5187365	0.3492705	0.1696025	0.0173685	-0.1707705	-0.357111	-0.5062495	-0.6758825	-0.8238855	-0.919583	-1.012909	-1.0790945	-1.110698	-1.1190755	-1.0900525
1.170681	1.041784	0.956179	0.8231825	0.73826		0.514027	0.3297945	0.1338225	-0.032465	-0.237359	-0.43963	-0.6010745	-0.7833065	-0.9393605	-1.0387235	-1.134957	-1.201532	-1.230177	-1.2298495	-1.191258
1.2237455	1.0798815	0.9846735	0.8398505	0.7473515	0.507074	0.3078975	0.09501		-0.085792	-0.307975	-0.5271415	-0.70115	-0.8959335	-1.0599855	-1.163144	-1.262251	-1.3288795	-1.353716	-1.343963	-1.2962745
1.275896	1.1179985	1.0130775	0.855639	0.7549195	0.4980745	0.283577	0.053342	-0.1427325	-0.3829845	-0.619252	-0.806435	-1.0136855	-1.18579	-1.2928845	-1.3947885	-1.4610825	-1.4812755	-1.4616285	-1.4053395
1.32434		1.1561995	1.041208	0.870645	0.7613905	0.487027	0.256973	0.008613	-0.2028615	-0.461999	-0.7161975	-0.9167675	-1.1365125	-1.316807	-1.427961	-1.532566	-1.59811	-1.6128575	-1.583056	-1.518628
		
																	
# Torque coefficient																		
																			
0.01557		0.0188245	0.020428	0.0233705	0.0248435	0.028377	0.030359	0.0319665	0.033192	0.0342415	0.0349625	0.0357165	0.035731	0.0348965	0.03398		0.031872	0.0292955	0.027245	0.023599	0.0192695
0.021573	0.025196	0.027113	0.0302775	0.0321135	0.035342	0.0372135	0.03866		0.039958	0.0405315	0.0400055	0.0392215	0.037157	0.0345315	0.03231		0.028088	0.022934	0.0184305	0.012233	0.0057765
0.0275475	0.031503	0.033862	0.0371995	0.039522	0.042247	0.043855	0.0447135	0.044882	0.0434235	0.041301	0.0396375	0.035728	0.030476	0.0256785	0.0189165	0.011687	0.005715	-0.001898	-0.0094905
0.033423	0.0376275	0.040498	0.0439125	0.0465705	0.0482785	0.048828	0.047799	0.047067	0.0447425	0.040761	0.0364425	0.0297145	0.022272	0.015914	0.007593	-0.001059	-0.0080625	-0.0167485	-0.0252465
0.038946	0.0432965	0.046611	0.0496155	0.0524425	0.052321	0.051432	0.049999	0.048338	0.042995	0.036123	0.029998	0.021663	0.0126975	0.0050695	-0.00459	-0.014318	-0.0222495	-0.03179	-0.040921
0.0437025	0.0479245	0.05126		0.053983	0.056537	0.0549715	0.0541665	0.0505245	0.0457715	0.038271	0.029898	0.0226175	0.0127685	0.0024135	-0.006274	-0.017086	-0.027825	-0.036581	-0.046759	-0.0567495
0.0470435	0.0508375	0.054648	0.057128	0.059705	0.0580375	0.0541745	0.047697	0.0415035	0.032771	0.0230185	0.0146125	0.0034525	-0.0082025	-0.0178625	-0.0297425	-0.041487	-0.0509005	-0.062021	-0.3303125
0.0486135	0.052691	0.057374	0.05985		0.0631005	0.0577705	0.0516395	0.043776	0.0366375	0.0267865	0.0158675	0.006309	-0.00615	-0.018974	-0.0296165	-0.042562	-0.055358	-0.065535	-0.07797	-0.0179855
0.049058	0.0545345	0.0596895	0.0628855	0.062878	0.055541	0.048287	0.039554	0.031582	0.020605	0.0084295	-0.0021955	-0.0158835	-0.029863	-0.04151	-0.055625	-0.069548	-0.080807	-0.094807	-0.0199205
0.0494655	0.056142	0.0622415	0.0623045	0.060942	0.052622	0.0446315	0.035124	0.026411	0.0142845	0.000852	-0.01082	-0.0257265	-0.0409335	-0.0536495	-0.0690145	-0.084374	-0.0968105	-0.1127035	-0.0220295
0.0500385	0.0576485	0.060752	0.060007	0.058216	0.049409	0.04091		0.0306505	0.0211515	0.0078635	-0.0068545	-0.0195365	-0.035723	-0.0521975	-0.066082	-0.082926	-0.099848	-0.113773	-0.131615	-0.1486185
0.049914	0.0548485	0.057412	0.0568525	0.05521		0.0461555	0.037177	0.026143	0.0158385	0.0013595	-0.014652	-0.028386	-0.0459155	-0.063725	-0.07894	-0.09742	-0.11613	-0.131741	-0.151506	-0.1696415
0.046576	0.050733	0.052988	0.0532115	0.052053	0.0428885	0.0334405	0.0216155	0.010486	-0.005258	-0.022545	-0.037407	-0.0563115	-0.0756035	-0.0922905	-0.112574	-0.1332805	-0.1507465	-0.1723245	-0.191542
0.042392	0.0461285	0.048529	0.0493215	0.0488325	0.039624	0.0297175	0.0170785	0.005049	-0.01194	-0.0305795	-0.046608	-0.066991	-0.087854	-0.106267	-0.1283875	-0.1513965	-0.1707395	-0.1940455	-0.214398
0.037701	0.0416635	0.044286	0.045403	0.045548	0.0363825	0.0260175	0.012497	-0.0004255	-0.0187375	-0.0387425	-0.056017	-0.0779405	-0.1006085	-0.120835	-0.144958	-0.170485	-0.191691	-0.216662	-0.238305
0.0330105	0.0373635	0.0402325	0.0416425	0.042236	0.0331705	0.022305	0.0078655	-0.005985	-0.0256395	-0.047101	-0.0656835	-0.089238	-0.1139305	-0.136005	-0.1623275	-0.190537	-0.213578	-0.240189	-0.263354
0.028388	0.033202	0.0363495	0.0380825	0.038965	0.0299515	0.018573	0.0031905	-0.0116225	-0.032666	-0.055628	-0.0755885	-0.1009105	-0.1278505	-0.1517725	-0.1805355	-0.2115355	-0.2363875	-0.2646625	-0.289618
0.023835	0.0291565	0.0326405	0.0346945	0.035747	0.0267185	0.0148315	-0.001542	-0.0173505	-0.0398255	-0.0644015	-0.0857935	-0.112986	-0.142375	-0.1681625	-0.199599	-0.23347	-0.26011	-0.2901265	-0.317148
0.019392	0.025234	0.029082	0.031422	0.0326045	0.0234795	0.011062	-0.0063325	-0.023199	-0.047177	-0.0733905	-0.096313	-0.1255075	-0.157493	-0.185208	-0.21952	-0.2563305	-0.2847465	-0.316625	-0.34598
0.015284	0.0214225	0.0256225	0.0282425	0.029561	0.020222	0.0072615	-0.0112205	-0.029139	-0.05469	-0.0826365	-0.1071455	-0.1385105	-0.173186	-0.2029415	-0.240297	-0.280111	-0.310302	-0.3441965	-0.3761355
